Version 4
SHEET 1 3716 1064
WIRE 1056 -176 960 -176
WIRE 1552 -160 1392 -160
WIRE 2720 -160 1648 -160
WIRE 688 -96 608 -96
WIRE 816 -96 752 -96
WIRE 368 -16 304 -16
WIRE 608 -16 608 -96
WIRE 608 -16 448 -16
WIRE 688 -16 608 -16
WIRE 816 -16 816 -96
WIRE 816 -16 752 -16
WIRE 960 -16 960 -176
WIRE 960 -16 816 -16
WIRE 1392 0 1392 -160
WIRE 1392 0 1248 0
WIRE 1456 0 1392 0
WIRE 1600 0 1600 -96
WIRE 1600 0 1536 0
WIRE 1648 0 1600 0
WIRE 1776 0 1728 0
WIRE 2160 0 1776 0
WIRE 2480 0 2224 0
WIRE 2640 0 2576 0
WIRE 2480 32 2480 0
WIRE 2576 32 2576 0
WIRE 304 48 304 -16
WIRE 608 48 608 -16
WIRE 688 48 608 48
WIRE 848 48 752 48
WIRE 960 64 960 -16
WIRE 688 112 640 112
WIRE 816 112 816 -16
WIRE 816 112 752 112
WIRE 1776 128 1776 0
WIRE 304 176 304 128
WIRE 368 176 304 176
WIRE 640 176 640 112
WIRE 640 176 448 176
WIRE 688 176 640 176
WIRE 848 176 848 48
WIRE 848 176 752 176
WIRE 960 176 960 128
WIRE 960 176 848 176
WIRE 1056 192 1056 -176
WIRE 1600 192 1600 0
WIRE 1728 192 1600 192
WIRE 1936 192 1824 192
WIRE 2528 192 2528 96
WIRE 2528 192 2192 192
WIRE 2720 192 2720 -160
WIRE 2720 192 2528 192
WIRE 2928 192 2720 192
WIRE 3136 192 2928 192
WIRE 1248 224 1248 0
WIRE 1392 240 1392 0
WIRE 2528 240 2528 192
WIRE 2720 320 2720 192
WIRE 368 352 304 352
WIRE 608 352 448 352
WIRE 688 352 608 352
WIRE 816 352 752 352
WIRE 960 352 960 176
WIRE 960 352 816 352
WIRE 2928 352 2928 192
WIRE 2064 368 2064 288
WIRE 2528 368 2528 320
WIRE 2528 368 2064 368
WIRE 304 416 304 352
WIRE 608 416 608 352
WIRE 688 416 608 416
WIRE 848 416 752 416
WIRE 2528 416 2528 368
WIRE 960 432 960 352
WIRE 688 480 640 480
WIRE 816 480 816 352
WIRE 816 480 752 480
WIRE 304 544 304 496
WIRE 368 544 304 544
WIRE 640 544 640 480
WIRE 640 544 448 544
WIRE 688 544 640 544
WIRE 848 544 848 416
WIRE 848 544 752 544
WIRE 960 544 960 496
WIRE 960 544 848 544
WIRE 1056 544 1056 272
WIRE 1056 544 960 544
WIRE 1248 544 1248 304
WIRE 1248 544 1056 544
WIRE 1392 544 1392 304
WIRE 1392 544 1248 544
WIRE 2528 544 2528 496
WIRE 2528 544 1392 544
WIRE 2640 544 2640 0
WIRE 2640 544 2528 544
WIRE 2720 544 2720 384
WIRE 2720 544 2640 544
WIRE 2928 544 2928 432
WIRE 2928 544 2720 544
WIRE 3136 544 3136 432
WIRE 3136 544 2928 544
WIRE 960 576 960 544
FLAG 960 576 0
SYMBOL voltage 304 32 R0
WINDOW 123 0 0 Left 0
WINDOW 39 0 0 Left 0
SYMATTR InstName V1
SYMATTR Value SINE(0 37.7736 50 0 0 0 2000)
SYMBOL schottky 688 0 R270
WINDOW 0 32 32 VTop 2
WINDOW 3 0 32 VBottom 2
SYMATTR InstName D1
SYMATTR Value RB238NS150
SYMATTR Description Diode
SYMATTR Type diode
SYMBOL schottky 752 160 R90
WINDOW 0 0 32 VBottom 2
WINDOW 3 32 32 VTop 2
SYMATTR InstName D2
SYMATTR Value RB238NS150
SYMATTR Description Diode
SYMATTR Type diode
SYMBOL schottky 688 128 R270
WINDOW 0 32 32 VTop 2
WINDOW 3 0 32 VBottom 2
SYMATTR InstName D3
SYMATTR Value RB238NS150
SYMATTR Description Diode
SYMATTR Type diode
SYMBOL schottky 752 32 R90
WINDOW 0 0 32 VBottom 2
WINDOW 3 32 32 VTop 2
SYMATTR InstName D4
SYMATTR Value RB238NS150
SYMATTR Description Diode
SYMATTR Type diode
SYMBOL res 464 -32 R90
WINDOW 0 0 56 VBottom 2
WINDOW 3 32 56 VTop 2
SYMATTR InstName R1
SYMATTR Value 0.0855
SYMBOL schottky 688 368 R270
WINDOW 0 32 32 VTop 2
WINDOW 3 0 32 VBottom 2
SYMATTR InstName D5
SYMATTR Value RB238NS150
SYMATTR Description Diode
SYMATTR Type diode
SYMBOL schottky 752 528 R90
WINDOW 0 0 32 VBottom 2
WINDOW 3 32 32 VTop 2
SYMATTR InstName D6
SYMATTR Value RB238NS150
SYMATTR Description Diode
SYMATTR Type diode
SYMBOL schottky 688 496 R270
WINDOW 0 32 32 VTop 2
WINDOW 3 0 32 VBottom 2
SYMATTR InstName D7
SYMATTR Value RB238NS150
SYMATTR Description Diode
SYMATTR Type diode
SYMBOL schottky 752 400 R90
WINDOW 0 0 32 VBottom 2
WINDOW 3 32 32 VTop 2
SYMATTR InstName D8
SYMATTR Value RB238NS150
SYMATTR Description Diode
SYMATTR Type diode
SYMBOL res 464 160 R90
WINDOW 0 0 56 VBottom 2
WINDOW 3 32 56 VTop 2
SYMATTR InstName R2
SYMATTR Value 0.0855
SYMBOL voltage 304 400 R0
WINDOW 123 0 0 Left 0
WINDOW 39 0 0 Left 0
SYMATTR InstName V2
SYMATTR Value SINE(0 37.7736 50 0 0 0 2000)
SYMBOL res 464 336 R90
WINDOW 0 0 56 VBottom 2
WINDOW 3 32 56 VTop 2
SYMATTR InstName R3
SYMATTR Value 0.0855
SYMBOL res 464 528 R90
WINDOW 0 0 56 VBottom 2
WINDOW 3 32 56 VTop 2
SYMATTR InstName R4
SYMATTR Value 0.0855
SYMBOL cap 752 -112 R90
WINDOW 0 0 32 VBottom 2
WINDOW 3 32 32 VTop 2
SYMATTR InstName C1
SYMATTR Value 100nF
SYMATTR SpiceLine V=60
SYMBOL cap 944 432 R0
SYMATTR InstName C2
SYMATTR Value 13200µF
SYMATTR SpiceLine V=50 Rser=0.03
SYMBOL cap 944 64 R0
SYMATTR InstName C3
SYMATTR Value 13200µF
SYMATTR SpiceLine V=50 Rser=0.03
SYMBOL cap 1376 240 R0
SYMATTR InstName C4
SYMATTR Value 10e-6
SYMATTR SpiceLine V=100
SYMBOL res 1744 -16 R90
WINDOW 0 0 56 VBottom 2
WINDOW 3 32 56 VTop 2
SYMATTR InstName R6
SYMATTR Value 4.7e3
SYMBOL res 2544 336 R180
WINDOW 0 36 76 Left 2
WINDOW 3 36 40 Left 2
SYMATTR InstName R7
SYMATTR Value 1.2e3
SYMBOL res 2544 512 R180
WINDOW 0 36 76 Left 2
WINDOW 3 36 40 Left 2
SYMATTR InstName R8
SYMATTR Value 61.2e3
SYMBOL zener 2224 -16 R90
WINDOW 0 -4 32 VBottom 2
WINDOW 3 36 32 VTop 2
SYMATTR InstName D9
SYMATTR Value BZX84C15L
SYMBOL pnp 2576 96 M270
SYMATTR InstName Q1
SYMBOL npn 1728 128 M90
SYMATTR InstName Q2
SYMBOL cap 2704 320 R0
SYMATTR InstName C5
SYMATTR Value 100e-9
SYMBOL PowerProducts\\LT317A 2064 192 R0
SYMATTR InstName U1
SYMBOL voltage 1248 208 R0
WINDOW 123 0 0 Left 0
WINDOW 39 24 124 Left 2
SYMATTR InstName V3
SYMATTR Value PWL(0 0 3 80)
SYMATTR SpiceLine Rser=0.342
SYMBOL res 1040 176 R0
SYMATTR InstName R9
SYMATTR Value 1e3
SYMBOL res 2912 336 R0
SYMATTR InstName R10
SYMATTR Value 10
SYMBOL res 3360 208 R180
WINDOW 0 36 76 Left 2
WINDOW 3 36 40 Left 2
SYMATTR InstName R5
SYMATTR Value 1.2e2
SYMBOL res 3408 512 R180
WINDOW 0 36 76 Left 2
WINDOW 3 36 40 Left 2
SYMATTR InstName R11
SYMATTR Value 2.2e2
SYMBOL cap 3120 368 R0
SYMATTR InstName C6
SYMATTR Value 15000e-6
SYMBOL res 1552 -16 R90
WINDOW 0 0 56 VBottom 2
WINDOW 3 32 56 VTop 2
SYMATTR InstName R12
SYMATTR Value 10
SYMBOL pnp 1648 -96 M270
SYMATTR InstName Q3
TEXT 48 264 Left 2 !.lib CompReg.lib
TEXT 48 240 Left 2 !.tran 5 startup
TEXT 48 288 Left 2 !.options cshunt=1e-15
