Version 4
SHEET 1 3292 680
WIRE 1072 -176 960 -176
WIRE 1168 -176 1072 -176
WIRE 1408 -176 1296 -176
WIRE 1072 -144 1072 -176
WIRE 1408 -128 1408 -176
WIRE 688 -96 608 -96
WIRE 816 -96 752 -96
WIRE 1072 -32 1072 -64
WIRE 1232 -32 1232 -128
WIRE 1232 -32 1072 -32
WIRE 1408 -32 1408 -64
WIRE 1408 -32 1232 -32
WIRE 368 -16 304 -16
WIRE 608 -16 608 -96
WIRE 608 -16 448 -16
WIRE 688 -16 608 -16
WIRE 816 -16 816 -96
WIRE 816 -16 752 -16
WIRE 960 -16 960 -176
WIRE 960 -16 816 -16
WIRE 1232 16 1232 -32
WIRE 1408 16 1408 -32
WIRE 304 48 304 -16
WIRE 608 48 608 -16
WIRE 688 48 608 48
WIRE 848 48 752 48
WIRE 960 64 960 -16
WIRE 688 112 640 112
WIRE 816 112 816 -16
WIRE 816 112 752 112
WIRE 1232 128 1232 80
WIRE 1328 128 1232 128
WIRE 1408 128 1408 80
WIRE 1408 128 1328 128
WIRE 304 176 304 128
WIRE 368 176 304 176
WIRE 640 176 640 112
WIRE 640 176 448 176
WIRE 688 176 640 176
WIRE 848 176 848 48
WIRE 848 176 752 176
WIRE 960 176 960 128
WIRE 960 176 848 176
WIRE 1328 176 1328 128
WIRE 368 352 304 352
WIRE 608 352 448 352
WIRE 688 352 608 352
WIRE 816 352 752 352
WIRE 960 352 960 176
WIRE 960 352 816 352
WIRE 304 416 304 352
WIRE 608 416 608 352
WIRE 688 416 608 416
WIRE 848 416 752 416
WIRE 960 432 960 352
WIRE 688 480 640 480
WIRE 816 480 816 352
WIRE 816 480 752 480
WIRE 304 544 304 496
WIRE 368 544 304 544
WIRE 640 544 640 480
WIRE 640 544 448 544
WIRE 688 544 640 544
WIRE 848 544 848 416
WIRE 848 544 752 544
WIRE 960 544 960 496
WIRE 960 544 848 544
WIRE 960 576 960 544
FLAG 960 576 0
FLAG 1328 176 0
SYMBOL voltage 304 32 R0
WINDOW 123 0 0 Left 0
WINDOW 39 0 0 Left 0
SYMATTR InstName V1
SYMATTR Value SINE(0 37.7736 50 0 0 0 2000)
SYMBOL schottky 688 0 R270
WINDOW 0 32 32 VTop 2
WINDOW 3 0 32 VBottom 2
SYMATTR InstName D1
SYMATTR Value RB238NS150
SYMATTR Description Diode
SYMATTR Type diode
SYMBOL schottky 752 160 R90
WINDOW 0 0 32 VBottom 2
WINDOW 3 32 32 VTop 2
SYMATTR InstName D2
SYMATTR Value RB238NS150
SYMATTR Description Diode
SYMATTR Type diode
SYMBOL schottky 688 128 R270
WINDOW 0 32 32 VTop 2
WINDOW 3 0 32 VBottom 2
SYMATTR InstName D3
SYMATTR Value RB238NS150
SYMATTR Description Diode
SYMATTR Type diode
SYMBOL schottky 752 32 R90
WINDOW 0 0 32 VBottom 2
WINDOW 3 32 32 VTop 2
SYMATTR InstName D4
SYMATTR Value RB238NS150
SYMATTR Description Diode
SYMATTR Type diode
SYMBOL res 464 -32 R90
WINDOW 0 0 56 VBottom 2
WINDOW 3 32 56 VTop 2
SYMATTR InstName R1
SYMATTR Value 0.0855
SYMBOL schottky 688 368 R270
WINDOW 0 32 32 VTop 2
WINDOW 3 0 32 VBottom 2
SYMATTR InstName D5
SYMATTR Value RB238NS150
SYMATTR Description Diode
SYMATTR Type diode
SYMBOL schottky 752 528 R90
WINDOW 0 0 32 VBottom 2
WINDOW 3 32 32 VTop 2
SYMATTR InstName D6
SYMATTR Value RB238NS150
SYMATTR Description Diode
SYMATTR Type diode
SYMBOL schottky 688 496 R270
WINDOW 0 32 32 VTop 2
WINDOW 3 0 32 VBottom 2
SYMATTR InstName D7
SYMATTR Value RB238NS150
SYMATTR Description Diode
SYMATTR Type diode
SYMBOL schottky 752 400 R90
WINDOW 0 0 32 VBottom 2
WINDOW 3 32 32 VTop 2
SYMATTR InstName D8
SYMATTR Value RB238NS150
SYMATTR Description Diode
SYMATTR Type diode
SYMBOL res 464 160 R90
WINDOW 0 0 56 VBottom 2
WINDOW 3 32 56 VTop 2
SYMATTR InstName R2
SYMATTR Value 0.0855
SYMBOL voltage 304 400 R0
WINDOW 123 0 0 Left 0
WINDOW 39 0 0 Left 0
SYMATTR InstName V2
SYMATTR Value SINE(0 37.7736 50 0 0 0 2000)
SYMBOL res 464 336 R90
WINDOW 0 0 56 VBottom 2
WINDOW 3 32 56 VTop 2
SYMATTR InstName R3
SYMATTR Value 0.0855
SYMBOL res 464 528 R90
WINDOW 0 0 56 VBottom 2
WINDOW 3 32 56 VTop 2
SYMATTR InstName R4
SYMATTR Value 0.0855
SYMBOL cap 752 -112 R90
WINDOW 0 0 32 VBottom 2
WINDOW 3 32 32 VTop 2
SYMATTR InstName C1
SYMATTR Value 100nF
SYMATTR SpiceLine V=60
SYMBOL cap 944 432 R0
SYMATTR InstName C2
SYMATTR Value 13200µF
SYMATTR SpiceLine V=50 Rser=0.03
SYMBOL cap 944 64 R0
SYMATTR InstName C3
SYMATTR Value 13200µF
SYMATTR SpiceLine V=50 Rser=0.03
SYMBOL reg3all 1296 -160 R0
SYMATTR InstName U1
SYMATTR SpiceModel 78L15
SYMBOL polcap 1392 -128 R0
SYMATTR InstName C4
SYMATTR Value 100e-6
SYMBOL zener 1248 80 R180
WINDOW 0 24 64 Left 2
WINDOW 3 24 0 Left 2
SYMATTR InstName D9
SYMATTR Value UDZV43
SYMBOL res 1056 -160 R0
SYMATTR InstName R5
SYMATTR Value 2700
SYMBOL polcap 1392 16 R0
SYMATTR InstName C5
SYMATTR Value 100e-6
TEXT 48 264 Left 2 !.lib CompReg.lib
TEXT 46 236 Left 2 !.tran 1
TEXT 48 288 Left 2 !.options cshunt=1e-15
TEXT 1704 -80 Left 2 !https://electronicprojectsforfun.wordpress.com/power-supplies/a-collection-of-proper-design-practices-using-the-lm723-ic-regulator/
