Version 4
SHEET 1 7124 1064
WIRE 1808 -288 1392 -288
WIRE 2720 -288 1904 -288
WIRE 1056 -176 960 -176
WIRE 1392 -176 1392 -288
WIRE 1392 -176 1056 -176
WIRE 1392 -128 1392 -176
WIRE 1504 -128 1392 -128
WIRE 1552 -128 1504 -128
WIRE 1856 -128 1856 -224
WIRE 1856 -128 1648 -128
WIRE 2096 -128 1856 -128
WIRE 2720 -128 2720 -288
WIRE 2720 -128 2176 -128
WIRE 688 -96 608 -96
WIRE 816 -96 752 -96
WIRE 1504 -80 1504 -128
WIRE 2896 -64 2896 -128
WIRE 3024 -64 3024 -128
WIRE 368 -16 304 -16
WIRE 608 -16 608 -96
WIRE 608 -16 448 -16
WIRE 688 -16 608 -16
WIRE 816 -16 816 -96
WIRE 816 -16 752 -16
WIRE 960 -16 960 -176
WIRE 960 -16 816 -16
WIRE 1504 32 1504 0
WIRE 1600 32 1600 -64
WIRE 1600 32 1504 32
WIRE 304 48 304 -16
WIRE 608 48 608 -16
WIRE 688 48 608 48
WIRE 848 48 752 48
WIRE 960 64 960 -16
WIRE 2896 80 2896 16
WIRE 3024 80 3024 16
WIRE 688 112 640 112
WIRE 816 112 816 -16
WIRE 816 112 752 112
WIRE 304 176 304 128
WIRE 368 176 304 176
WIRE 640 176 640 112
WIRE 640 176 448 176
WIRE 688 176 640 176
WIRE 848 176 848 48
WIRE 848 176 752 176
WIRE 960 176 960 128
WIRE 960 176 848 176
WIRE 1056 192 1056 -176
WIRE 1392 192 1392 -128
WIRE 1456 192 1392 192
WIRE 1600 192 1600 32
WIRE 1600 192 1536 192
WIRE 1904 192 1600 192
WIRE 2000 192 1904 192
WIRE 2288 192 2144 192
WIRE 2528 192 2288 192
WIRE 2720 192 2720 -128
WIRE 2720 192 2528 192
WIRE 2928 192 2720 192
WIRE 3040 192 2928 192
WIRE 3136 192 3040 192
WIRE 2528 240 2528 192
WIRE 1904 256 1904 192
WIRE 2000 256 1904 256
WIRE 2288 256 2144 256
WIRE 1248 272 1248 240
WIRE 1392 272 1392 192
WIRE 1392 272 1248 272
WIRE 2720 320 2720 192
WIRE 2928 320 2832 320
WIRE 368 352 304 352
WIRE 608 352 448 352
WIRE 688 352 608 352
WIRE 816 352 752 352
WIRE 960 352 960 176
WIRE 960 352 816 352
WIRE 1392 352 1392 272
WIRE 2048 352 2048 272
WIRE 2096 352 2096 272
WIRE 2096 352 2048 352
WIRE 2928 352 2928 320
WIRE 3040 352 3040 192
WIRE 2288 368 2288 256
WIRE 2528 368 2528 320
WIRE 2528 368 2288 368
WIRE 3136 368 3136 192
WIRE 304 416 304 352
WIRE 608 416 608 352
WIRE 688 416 608 416
WIRE 848 416 752 416
WIRE 2528 416 2528 368
WIRE 960 432 960 352
WIRE 688 480 640 480
WIRE 816 480 816 352
WIRE 816 480 752 480
WIRE 304 544 304 496
WIRE 368 544 304 544
WIRE 640 544 640 480
WIRE 640 544 448 544
WIRE 688 544 640 544
WIRE 848 544 848 416
WIRE 848 544 752 544
WIRE 960 544 960 496
WIRE 960 544 848 544
WIRE 1056 544 1056 272
WIRE 1056 544 960 544
WIRE 1248 544 1248 464
WIRE 1248 544 1056 544
WIRE 1392 544 1392 416
WIRE 1392 544 1248 544
WIRE 2048 544 2048 352
WIRE 2048 544 1392 544
WIRE 2528 544 2528 496
WIRE 2528 544 2048 544
WIRE 2720 544 2720 384
WIRE 2720 544 2528 544
WIRE 2832 544 2832 320
WIRE 2832 544 2720 544
WIRE 2928 544 2928 432
WIRE 2928 544 2832 544
WIRE 3040 544 3040 432
WIRE 3040 544 2928 544
WIRE 3136 544 3136 432
WIRE 3136 544 3040 544
WIRE 960 576 960 544
FLAG 960 576 0
FLAG 1248 240 Vin
FLAG 2928 192 Vout
FLAG 2896 80 0
FLAG 1904 192 Vreg
FLAG 3024 80 0
FLAG 2896 -128 Vdrop
FLAG 3024 -128 VregDrop
SYMBOL voltage 304 32 R0
WINDOW 123 0 0 Left 0
WINDOW 39 0 0 Left 0
SYMATTR InstName V1
SYMATTR Value SINE(0 37.7736 50 0 0 0 2000)
SYMBOL schottky 688 0 R270
WINDOW 0 32 32 VTop 2
WINDOW 3 0 32 VBottom 2
SYMATTR InstName D1
SYMATTR Value RB238NS150
SYMATTR Description Diode
SYMATTR Type diode
SYMBOL schottky 752 160 R90
WINDOW 0 0 32 VBottom 2
WINDOW 3 32 32 VTop 2
SYMATTR InstName D2
SYMATTR Value RB238NS150
SYMATTR Description Diode
SYMATTR Type diode
SYMBOL schottky 688 128 R270
WINDOW 0 32 32 VTop 2
WINDOW 3 0 32 VBottom 2
SYMATTR InstName D3
SYMATTR Value RB238NS150
SYMATTR Description Diode
SYMATTR Type diode
SYMBOL schottky 752 32 R90
WINDOW 0 0 32 VBottom 2
WINDOW 3 32 32 VTop 2
SYMATTR InstName D4
SYMATTR Value RB238NS150
SYMATTR Description Diode
SYMATTR Type diode
SYMBOL res 464 -32 R90
WINDOW 0 0 56 VBottom 2
WINDOW 3 32 56 VTop 2
SYMATTR InstName R1
SYMATTR Value 0.0855
SYMBOL schottky 688 368 R270
WINDOW 0 32 32 VTop 2
WINDOW 3 0 32 VBottom 2
SYMATTR InstName D5
SYMATTR Value RB238NS150
SYMATTR Description Diode
SYMATTR Type diode
SYMBOL schottky 752 528 R90
WINDOW 0 0 32 VBottom 2
WINDOW 3 32 32 VTop 2
SYMATTR InstName D6
SYMATTR Value RB238NS150
SYMATTR Description Diode
SYMATTR Type diode
SYMBOL schottky 688 496 R270
WINDOW 0 32 32 VTop 2
WINDOW 3 0 32 VBottom 2
SYMATTR InstName D7
SYMATTR Value RB238NS150
SYMATTR Description Diode
SYMATTR Type diode
SYMBOL schottky 752 400 R90
WINDOW 0 0 32 VBottom 2
WINDOW 3 32 32 VTop 2
SYMATTR InstName D8
SYMATTR Value RB238NS150
SYMATTR Description Diode
SYMATTR Type diode
SYMBOL res 464 160 R90
WINDOW 0 0 56 VBottom 2
WINDOW 3 32 56 VTop 2
SYMATTR InstName R2
SYMATTR Value 0.0855
SYMBOL voltage 304 400 R0
WINDOW 123 0 0 Left 0
WINDOW 39 0 0 Left 0
SYMATTR InstName V2
SYMATTR Value SINE(0 37.7736 50 0 0 0 2000)
SYMBOL res 464 336 R90
WINDOW 0 0 56 VBottom 2
WINDOW 3 32 56 VTop 2
SYMATTR InstName R3
SYMATTR Value 0.0855
SYMBOL res 464 528 R90
WINDOW 0 0 56 VBottom 2
WINDOW 3 32 56 VTop 2
SYMATTR InstName R4
SYMATTR Value 0.0855
SYMBOL cap 752 -112 R90
WINDOW 0 0 32 VBottom 2
WINDOW 3 32 32 VTop 2
SYMATTR InstName C1
SYMATTR Value 100nF
SYMATTR SpiceLine V=60
SYMBOL cap 944 432 R0
SYMATTR InstName C2
SYMATTR Value 13200µF
SYMATTR SpiceLine V=50 Rser=0.03
SYMBOL cap 944 64 R0
SYMATTR InstName C3
SYMATTR Value 13200µF
SYMATTR SpiceLine V=50 Rser=0.03
SYMBOL cap 1376 352 R0
SYMATTR InstName C4
SYMATTR Value 10e-6
SYMATTR SpiceLine V=100
SYMBOL res 2512 224 R0
SYMATTR InstName R7
SYMATTR Value 255743
SYMBOL res 2512 400 R0
SYMATTR InstName R8
SYMATTR Value 4.7e3
SYMBOL cap 2704 320 R0
SYMATTR InstName C5
SYMATTR Value 100e-9
SYMBOL voltage 1248 368 R0
WINDOW 123 0 0 Left 0
WINDOW 39 24 124 Left 2
SYMATTR SpiceLine Rser=0.342
SYMATTR InstName V3
SYMATTR Value PWL(0 20 1 75)
SYMBOL res 1040 176 R0
SYMATTR InstName R9
SYMATTR Value 1e6
SYMBOL TPS7A4001 2064 224 R0
SYMATTR InstName U1
SYMBOL cap 2272 192 R0
SYMATTR InstName C8
SYMATTR Value 10e-9
SYMBOL res 1440 208 R270
WINDOW 0 32 56 VTop 2
WINDOW 3 0 56 VBottom 2
SYMATTR InstName R6
SYMATTR Value 220
SYMBOL pnp 1648 -64 M270
SYMATTR InstName Q1
SYMATTR Value Qmpsa92
SYMBOL res 1488 -96 R0
SYMATTR InstName R12
SYMATTR Value 50
SYMBOL res 2080 -112 R270
WINDOW 0 32 56 VTop 2
WINDOW 3 0 56 VBottom 2
SYMATTR InstName R13
SYMATTR Value 75
SYMBOL npn 1808 -224 R270
SYMATTR InstName Q2
SYMATTR Value Q2n3773g
SYMBOL bv 2896 -80 R0
WINDOW 0 -22 -13 VRight 2
WINDOW 3 -54 -32 VRight 2
SYMATTR InstName B1
SYMATTR Value V=V(Vin,Vout)
SYMBOL bv 3024 -80 R0
WINDOW 0 -22 -13 VRight 2
WINDOW 3 -54 -32 VRight 2
SYMATTR InstName B2
SYMATTR Value V=V(Vreg,Vout)
SYMBOL current 2928 352 R0
WINDOW 123 0 0 Left 0
WINDOW 39 0 0 Left 0
SYMATTR InstName I1
SYMATTR Value 4
SYMBOL res 3056 448 R180
WINDOW 0 36 76 Left 2
WINDOW 3 36 40 Left 2
SYMATTR InstName R10
SYMATTR Value R=if(time<0.7,1e9,abs(10/(time-0.7)))
SYMBOL pnp 3296 176 M270
SYMATTR InstName Q3
SYMATTR Value TIP42C
SYMBOL cap 3120 368 R0
WINDOW 0 -1 -22 VRight 2
WINDOW 3 -1 46 VRight 2
SYMATTR InstName C7
SYMATTR Value 16200µF
SYMATTR SpiceLine V=80 Rser=0.016
TEXT 1104 -16 Left 2 !.tran 1.75 startup
TEXT 1104 -40 Left 2 !.options cshunt=1e-15
TEXT 1680 0 Left 2 !.MODEL TIP42C PNP(Is=66.19f Xti=3 Eg=1.11 Vaf=100 Bf=137.6 Ise=862.2f \n+Ne=1.481 Ikf=1.642 Nk=.5695 Xtb=2 Br=5.88 Isc=273.5f Nc=1.24 Ikr=3.555 \n+Rc=79.39m Cjc=870.4p Mjc=.6481 Vjc=.75 Fc=.5 Cje=390.1p Mje=.4343 \n+Vje=.75 Tr=235.4n Tf=23.21n Itf=71.33 Xtf=5.982 Vtf=10 Rb=.1 Vceo=100 \n+Icrating=6 mfg=Texas)
TEXT 1680 -32 Left 2 !.inc 2N3773.LIB
TEXT 1680 -64 Left 2 !.inc MPSA92.LIB
